# total energy = -244.67763362 eV

CRYSTAL

PRIMVEC
        8.75042194     0.00000000     0.00000000
        4.21591443     7.66837724     0.00000000
       -1.36466946    -0.80629775     4.99823216

PRIMCOORD
36 1
Li     10.38253222     7.62293086     0.06667127     0.01063518    -0.00915973    -0.00177883
Li     11.68303453     5.42419318     0.06755576    -0.00287682     0.01386505    -0.00175849
Li     11.29363881     6.67869186     4.88515925    -0.00675060    -0.00277094    -0.04555577
Li      1.27561078     0.75292304     2.38838709    -0.05591315    -0.03199403     0.05942297
Li      4.61562765     0.75344975     2.67747530    -0.04208275     0.04924025     0.01004814
Li      7.15921069     0.54025993     2.49895244     0.00328089    -0.02276296    -0.03294441
Li      2.88450663     3.68229900     2.67679189     0.02317309    -0.06189820     0.00983624
Li      3.92303772     6.01455542     2.50016781    -0.01801611     0.01150041    -0.03264448
Li     10.40934052     6.15611881     2.69124088    -0.05435330    -0.03261686    -0.03201680
Li      4.11360042     4.38754129     4.83088540     0.02469395    -0.02219707    -0.00927663
Li      5.82787415     1.49038626     4.83153672    -0.00904735     0.03156350    -0.00872879
Li      8.75474825     5.17595549     0.05655525     0.13183164     0.07795003     0.01350378
Mo      2.84682635     1.68264237     4.97793819    -0.06068240    -0.03299701     0.02698777
Mo      2.87417095     0.20340848     0.07821878     0.00552192     0.05939377    -0.07346887
Mo      1.56479207     2.41883033     0.07845565     0.05074896    -0.02757748    -0.06756923
Mo      5.87155076     3.47102143     2.50263758     0.07833795     0.05087785    -0.08534440
Mo      8.52763009     3.54905162     2.40321940    -0.15473776     0.07426432    -0.06112000
Mo      7.21899860     5.76122042     2.40266414    -0.01040390    -0.17056020    -0.05211835
O       4.35975473     2.57787565     3.74593969     0.00965055     0.00547302    -0.03119526
O       5.79659681     5.18426956     3.71015359     0.00593581     0.05594689     0.01008337
O       2.93070732    -0.03268167     3.76808630    -0.05926696    -0.02400349     0.02199501
O       7.33650948     2.58132844     3.71099280     0.05173478    -0.02298953     0.01002483
O       8.63525169     5.10642523     3.64312010    -0.03216102    -0.02032498    -0.07620359
O       5.86686270     0.02515651     3.76876431     0.02696166    -0.04102103     0.01963424
O       1.38450570     2.58291100     3.76822281    -0.04852192    -0.04061187     0.02246487
O       2.84853449     5.12906765     3.76858998    -0.02093035     0.04140730     0.02281722
O       0.08875510     0.05216503     3.83809849    -0.00380550    -0.00370723     0.05801228
O       7.17519076     4.24216044     1.00616568     0.13835569     0.07892575     0.20167651
O       8.44332449     6.80245077     1.19343504    -0.02129426    -0.00351635     0.00111694
O       5.69307296     1.87876532     1.24690768    -0.06940069     0.05093557     0.01040708
O      10.03057247     4.11985210     1.19390667    -0.01831032    -0.01825470     0.00192292
O      11.52963126     6.81800673     1.28174566    -0.00023302    -0.00089018    -0.03196675
O       8.80284199     1.84177019     1.27835600     0.05113005     0.06544828     0.04499703
O       4.38984040     4.08116213     1.24614765     0.01442238    -0.08303342     0.01367807
O       5.85581166     6.82503519     1.27780670     0.07714470     0.01174516     0.04665497
O       2.90084059     1.71345919     1.46519577    -0.01477102    -0.00564989     0.03840641

