# AuCu structure for testing

CRYSTAL
PRIMVEC
        4.00000000     0.00000000     0.00000000
        0.00000000     4.00000000     0.00000000
        0.00000000     0.00000000     4.00000000
PRIMCOORD
4 1
Cu      0.00000000     0.00000000     0.00000000
Cu      0.00000000     2.00000000     2.00000000
Au      2.00000000     0.00000000     2.00000000
Au      2.00000000     2.00000000     0.00000000
